OpenDSS_controlado_Com_interface/TCC-Rede13/MASTER_RedeTeste13Barras.dss
//--------------------------------------------------------------------------------------------------//
// Escola Politécnica da USP
// PEA
// Autor
//        Nome: Paulo Radatz
//        NUSP: 6905560
//------------------------------------------------------------------------------------------------------------------------------//

//------------------------------------------------------------------------------------------------------------------------------//
// Modelagem da rede teste IEEE 13 barras
//------------------------------------------------------------------------------------------------------------------------------//

// No Apêndice A do meu TCC se encontra toda a explicação para rodar os diferentes cenários.

//------------------------------------------------------------------------------------------------------------------------------//
//Reinicia o programa

Clear

//------------------------------------------------------------------------------------------------------------------------------//
// Files que descrevem o circuito

Redirect subestacao.dss  
Redirect linecodes.dss
Redirect lines.dss
Redirect loads.dss
Redirect capacitors.dss
Redirect transformer_sub.dss
Redirect transformer.dss
Redirect regulators.dss
Redirect switches.dss

Redirect tensao_base.dss

