OpenDSS_controlado_Com_interface/TCC-Rede13/IEEE13BARRAS_VLN.Txt

SYMMETRICAL COMPONENT VOLTAGES BY BUS (for 3-phase buses)

Bus        Mag:   V1 (kV)    p.u.     V2 (kV)   %V2/V1    V0 (kV)    %V0/V1

sourcebus      66.4          1  3.245E-008  4.887E-008 4.319E-009 6.505E-009
reg           2.402          1  1.272E-009  5.296E-008 4.718E-011 1.964E-009
632           2.402          1  7.991E-008  3.327E-006 7.964E-008 3.316E-006
670           2.402          1  9.499E-008  3.955E-006 1.002E-007 4.173E-006
671           2.402          1  1.235E-007  5.14E-006 1.573E-007 6.551E-006
680           2.402          1  1.248E-007  5.196E-006 1.57E-007 6.539E-006
633           2.402          1  7.998E-008  3.33E-006 7.97E-008 3.318E-006
645           2.402          1          0          0         0         0
646           2.402          1          0          0         0         0
692           2.402          1  1.235E-007  5.14E-006 1.573E-007 6.551E-006
675           2.402          1  1.238E-007  5.155E-006 1.573E-007 6.551E-006
684           2.402          1          0          0         0         0
611           2.402          1          0          0         0         0
652           2.402          1          0          0         0         0
634          0.2771          1  9.228E-009  3.33E-006 9.196E-009 3.318E-006
650           2.402          1  1.244E-009  5.18E-008 4.652E-013 1.937E-011
