OpenDSS_controlado_Com_interface/TCC-Rede13/IEEE13BARRAS_VLN_Node.Txt

LINE-GROUND and LINE-LINE VOLTAGES BY BUS & NODE

Bus       Node    VLN (kV)   Angle      pu     Base kV    Node-Node   VLL (kV)  Angle      pu

SOURCEBUS 1       66.395 /_   30.0         1   115.000        1-2        115 /_   60.0         1
   -      2       66.395 /_  -90.0         1   115.000        2-3        115 /_  -60.0         1
   -      3       66.395 /_  150.0         1   115.000        3-1        115 /_  180.0         1
REG ..... 1       2.5368 /_    0.0    1.0562     4.160        1-2     4.3549 /_   29.7    1.0468
   -      2       2.4918 /_ -120.0    1.0375     4.160        2-3     4.3549 /_  -89.7    1.0469
   -      3       2.5368 /_  120.0    1.0562     4.160        3-1     4.3938 /_  150.0    1.0562
632 ..... 1       2.4366 /_   -2.5    1.0145     4.160        1-2      4.234 /_   28.1    1.0178
   -      2       2.4715 /_ -121.7     1.029     4.160        2-3     4.2396 /_  -92.4    1.0191
   -      3       2.4122 /_  117.8    1.0044     4.160        3-1     4.2055 /_  147.8    1.0109
670 ..... 1       2.4118 /_   -3.4    1.0042     4.160        1-2     4.2033 /_   27.8    1.0104
   -      2       2.4785 /_ -122.0     1.032     4.160        2-3     4.2252 /_  -93.1    1.0157
   -      3       2.3776 /_  117.1   0.98992     4.160        3-1     4.1595 /_  147.1   0.99987
671 ..... 1       2.3608 /_   -5.4   0.98295     4.160        1-2     4.1444 /_   27.1   0.99625
   -      2       2.4987 /_ -122.4    1.0404     4.160        2-3     4.2058 /_  -94.4     1.011
   -      3       2.3179 /_  116.0   0.96506     4.160        3-1     4.0795 /_  145.6   0.98064
680 ..... 1       2.3608 /_   -5.4   0.98295     4.160        1-2     4.1444 /_   27.1   0.99625
   -      2       2.4987 /_ -122.4    1.0404     4.160        2-3     4.2058 /_  -94.4     1.011
   -      3       2.3179 /_  116.0   0.96506     4.160        3-1     4.0795 /_  145.6   0.98064
633 ..... 1       2.4293 /_   -2.6    1.0115     4.160        1-2     4.2233 /_   28.1    1.0152
   -      2       2.4669 /_ -121.8    1.0271     4.160        2-3     4.2292 /_  -92.4    1.0166
   -      3       2.4059 /_  117.8    1.0017     4.160        3-1      4.195 /_  147.8    1.0084
645 ..... 2       2.4494 /_ -121.9    1.0198     4.160        2-3     4.2119 /_  -92.3    1.0125
   -      3       2.4077 /_  117.8    1.0025     4.160
646 ..... 2       2.4453 /_ -122.0    1.0181     4.160        2-3     4.2016 /_  -92.4      1.01
   -      3       2.4028 /_  117.9    1.0004     4.160
692 ..... 1       2.3606 /_   -5.4   0.98284     4.160        1-2     4.1441 /_   27.1   0.99619
   -      2       2.4987 /_ -122.4    1.0404     4.160        2-3     4.2057 /_  -94.4     1.011
   -      3       2.3177 /_  116.0   0.96498     4.160        3-1     4.0791 /_  145.6   0.98054
675 ..... 1       2.3448 /_   -5.6    0.9763     4.160        1-2     4.1339 /_   27.1   0.99372
   -      2       2.5043 /_ -122.6    1.0427     4.160        2-3     4.2028 /_  -94.5    1.0103
   -      3        2.313 /_  116.0   0.96303     4.160        3-1     4.0667 /_  145.4   0.97756
684 ..... 1       2.3562 /_   -5.4   0.98103     4.160
   -      3        2.313 /_  115.9   0.96303     4.160        3-1     4.0696 /_  145.6   0.97827
611 ..... 3       2.3081 /_  115.8   0.96101     4.160
652 ..... 1        2.343 /_   -5.3   0.97554     4.160
634 ..... 1      0.27362 /_   -3.3   0.98732     0.480        1-2    0.47656 /_   27.6   0.99283
   -      2      0.27948 /_ -122.3    1.0085     0.480        2-3    0.47898 /_  -92.9   0.99787
   -      3      0.27231 /_  117.3   0.98262     0.480        3-1    0.47409 /_  147.1   0.98769
650 ..... 1       2.4018 /_    0.0         1     4.160        1-2       4.16 /_   30.0         1
   -      2       2.4018 /_ -120.0         1     4.160        2-3       4.16 /_  -90.0         1
   -      3       2.4018 /_  120.0         1     4.160        3-1       4.16 /_  150.0         1
